176870
     RDKit          3D

 13 14  0  0  1  0  0  0  0  0999 V2000
    2.4826   -0.1680   -1.0535 N   0  0  0  0  0  0  0  0  0  0  0  0
    0.3264    3.2230   -0.0628 N   0  0  0  0  0  0  0  0  0  0  0  0
    2.4221    2.1199   -0.5078 N   0  0  0  0  0  0  0  0  0  0  0  0
    0.3443    0.8892   -0.6153 C   0  0  0  0  0  0  0  0  0  0  0  0
   -0.3341    2.0714   -0.2764 C   0  0  0  0  0  0  0  0  0  0  0  0
    1.7297    0.9839   -0.7150 C   0  0  0  0  0  0  0  0  0  0  0  0
    3.7861   -0.5763   -0.7298 C   0  0  0  0  0  0  0  0  0  0  0  0
    1.6683    3.1847   -0.1897 C   0  0  0  0  0  0  0  0  0  0  0  0
    4.3592   -0.1864    0.4807 C   0  0  0  0  0  0  0  0  0  0  0  0
    4.5082   -1.3722   -1.6190 C   0  0  0  0  0  0  0  0  0  0  0  0
    5.6545   -0.5924    0.8017 C   0  0  0  0  0  0  0  0  0  0  0  0
    5.8034   -1.7783   -1.2979 C   0  0  0  0  0  0  0  0  0  0  0  0
    6.3766   -1.3882   -0.0876 C   0  0  0  0  0  0  0  0  0  0  0  0
  1  6  1  0
  1  7  1  0
  2  5  2  0
  2  8  1  0
  3  6  1  0
  3  8  2  0
  4  5  1  0
  4  6  2  0
  7  9  2  0
  7 10  1  0
  9 11  1  0
 10 12  2  0
 11 13  2  0
 12 13  1  0
M  END
$$$$
