sele.mol
  ChemDraw12271312273D

 23 24  0  0  1  0  0  0  0  0999 V2000
   -0.4187   -0.7169   -0.2115 C   0  0  0  0  0  0  0  0  0  0  0  0
   -0.2143   -1.5219    1.2603 N   0  0  0  0  0  0  0  0  0  0  0  0
   -2.5349   -0.9592   -2.1664 S   0  0  0  0  0  0  0  0  0  0  0  0
   -0.6524   -1.4130    0.4509 C   0  0  0  0  0  0  0  0  0  0  0  0
   -3.3543   -0.4179   -1.7528 O   0  0  0  0  0  0  0  0  0  0  0  0
   -1.4753   -2.0030    0.2975 C   0  0  0  0  0  0  0  0  0  0  0  0
   -3.0009   -1.8732   -2.5449 O   0  0  0  0  0  0  0  0  0  0  0  0
   -2.0209   -1.8675   -0.5276 C   0  0  0  0  0  0  0  0  0  0  0  0
   -2.0238   -0.3362   -2.9665 N   0  0  0  0  0  0  0  0  0  0  0  0
   -1.7908   -1.1757   -1.1764 C   0  0  0  0  0  0  0  0  0  0  0  0
   -0.9685   -0.6051   -1.0187 C   0  0  0  0  0  0  0  0  0  0  0  0
    1.6288   -1.0653    2.9665 C   0  0  0  0  0  0  0  0  0  0  0  0
    2.1772   -0.4144    2.4532 C   0  0  0  0  0  0  0  0  0  0  0  0
    1.8639   -0.1384    1.5384 C   0  0  0  0  0  0  0  0  0  0  0  0
    2.3557    0.5240    1.0101 N   0  0  0  0  0  0  0  0  0  0  0  0
    1.0488   -0.5090    1.1441 N   0  0  0  0  0  0  0  0  0  0  0  0
    0.5463   -1.1191    1.6409 C   0  0  0  0  0  0  0  0  0  0  0  0
    0.8302   -1.3886    2.5163 N   0  0  0  0  0  0  0  0  0  0  0  0
    1.9284    0.9341    0.1262 C   0  0  0  0  0  0  0  0  0  0  0  0
    2.1700    2.0030    0.0351 C   0  0  0  0  0  0  0  0  0  0  0  0
    2.3112    0.3599   -0.7147 C   0  0  0  0  0  0  0  0  0  0  0  0
    3.1564    2.0001   -0.1505 O   0  0  0  0  0  0  0  0  0  0  0  0
    3.3543    0.1656    2.8747 Br  0  0  0  0  0  0  0  0  0  0  0  0
  1 11  4  0      
  2  4  1  0      
  3  5  2  0      
  3  7  2  0      
  3  9  1  0      
  4  1  4  0      
  4  6  4  0      
  6  8  4  0      
  8 10  4  0      
 10  3  1  0      
 11 10  4  0      
 12 18  4  0      
 13 12  4  0      
 13 23  1  0      
 14 13  4  0      
 14 16  4  0      
 15 14  1  0      
 16 17  4  0      
 17  2  1  0      
 18 17  4  0      
 19 15  1  0      
 19 21  1  0      
 20 19  1  0      
 22 20  1  0      
M  END
$$$$
